power-feeders/Taxonomy_feeders/R1_2500_1_t6.glm
//Input feeder information for Taxonomy Feeders with different cases.
//Started on 10/21/09. This version created 25-Feb-2019 18:33:41.
// This version was created to perform FY11 Department of Energy
// analysis on the benefits of the SGIG grant projects.

clock {
     timezone PST+8PDT;
     starttime '2009-01-01 00:00:00';
     stoptime '2010-01-02 00:00:00';
}

#include "appliance_schedules.glm";
#include "water_and_setpoint_schedule_v5.glm";
#include "commercial_schedules.glm";
#include "daily_elasticity_schedules.glm";
//#define stylesheet=http://gridlab-d.svn.sourceforge.net/viewvc/gridlab-d/trunk/core/gridlabd-2_0
#set minimum_timestep=60;
#set profiler=1;
#set relax_naming_rules=1;

module tape;
module climate;
module residential {
     implicit_enduses NONE;
};
module powerflow {
     solver_method NR;
     NR_iteration_limit 50;
};

class player {
     double value;
};

module market;

class auction {
     double my_avg;
     double my_std;
};

object player {
     name CPP_days_R1;
     file CPP_days_R1.player;
};

object auction {
     name Market_1;
     period 900;
     special_mode BUYERS_ONLY;
     unit kW;
     my_avg 0.091393;
     my_std 0.030465;
     object player {
          file R1_2500_1_t0_TOU.player;
          loop 10;
          property current_market.clearing_price;
     };
}

object climate {
     name "CA-San_francisco";
     tmyfile "CA-San_francisco.tmy2";
     interpolate QUADRATIC;
};

//Configurations

object regulator_configuration {     
      name regulator_configuration_1168;     
      name feeder_reg_cfg;     
      Control OUTPUT_VOLTAGE;     
      band_center 14975.0;     
      band_width 240;     
      connect_type WYE_WYE;     
      time_delay 30;     
      raise_taps 16;     
      lower_taps 16;     
      regulation 0.10;     
      tap_pos_A 0;     
      tap_pos_B 0;     
      tap_pos_C 0;     
}       

object regulator_configuration {     
      name regulator_configuration_9997;     
      name votlage_reg_cfg;     
      Control OUTPUT_VOLTAGE;     
      band_center 14975.0;     
      band_width 240;     
      connect_type WYE_WYE;     
      time_delay 30;     
      raise_taps 16;     
      lower_taps 16;     
      regulation 0.10;     
      tap_pos_A 0;     
      tap_pos_B 0;     
      tap_pos_C 0;     
}       

object line_configuration {     
      name line_configuration_25;     
      conductor_A underground_line_conductor_2;     
      conductor_N underground_line_conductor_2;     
      spacing line_spacing_11;     
}       

object line_configuration {     
      name line_configuration_26;     
      conductor_A underground_line_conductor_3;     
      conductor_N underground_line_conductor_3;     
      spacing line_spacing_11;     
}       

object line_configuration {     
      name line_configuration_27;     
      conductor_A overhead_line_conductor_4;     
      conductor_B overhead_line_conductor_4;     
      conductor_C overhead_line_conductor_4;     
      conductor_N overhead_line_conductor_4;     
      spacing line_spacing_12;     
}       

object line_configuration {     
      name line_configuration_28;     
      conductor_B overhead_line_conductor_5;     
      conductor_N overhead_line_conductor_5;     
      spacing line_spacing_13;     
}       

object line_configuration {     
      name line_configuration_29;     
      conductor_B underground_line_conductor_3;     
      conductor_N underground_line_conductor_3;     
      spacing line_spacing_13;     
}       

object line_configuration {     
      name line_configuration_30;     
      conductor_C underground_line_conductor_3;     
      conductor_N underground_line_conductor_3;     
      spacing line_spacing_14;     
}       

object line_configuration {     
      name line_configuration_31;     
      conductor_A underground_line_conductor_3;     
      conductor_B underground_line_conductor_3;     
      conductor_C underground_line_conductor_3;     
      conductor_N underground_line_conductor_3;     
      spacing line_spacing_15;     
}       

object line_configuration {     
      name line_configuration_32;     
      conductor_A underground_line_conductor_6;     
      conductor_B underground_line_conductor_6;     
      conductor_C underground_line_conductor_6;     
      conductor_N underground_line_conductor_6;     
      spacing line_spacing_15;     
}       

object line_configuration {     
      name line_configuration_33;     
      conductor_C overhead_line_conductor_5;     
      conductor_N overhead_line_conductor_5;     
      spacing line_spacing_16;     
}       

object line_configuration {     
      name line_configuration_34;     
      conductor_A overhead_line_conductor_7;     
      conductor_B overhead_line_conductor_7;     
      conductor_C overhead_line_conductor_7;     
      conductor_N overhead_line_conductor_7;     
      spacing line_spacing_12;     
}       

object line_configuration {     
      name line_configuration_35;     
      conductor_A overhead_line_conductor_8;     
      conductor_B overhead_line_conductor_8;     
      conductor_C overhead_line_conductor_8;     
      conductor_N overhead_line_conductor_8;     
      spacing line_spacing_12;     
}       

object line_configuration {     
      name line_configuration_36;     
      conductor_A overhead_line_conductor_7;     
      conductor_B overhead_line_conductor_7;     
      conductor_C overhead_line_conductor_7;     
      conductor_N overhead_line_conductor_7;     
      spacing line_spacing_12;     
}       

object line_configuration {     
      name line_configuration_37;     
      conductor_A overhead_line_conductor_5;     
      conductor_B overhead_line_conductor_5;     
      conductor_C overhead_line_conductor_5;     
      conductor_N overhead_line_conductor_5;     
      spacing line_spacing_12;     
}       

object line_configuration {     
      name line_configuration_38;     
      conductor_A overhead_line_conductor_5;     
      conductor_N overhead_line_conductor_5;     
      spacing line_spacing_11;     
}       

object line_configuration {     
      name line_configuration_39;     
      conductor_A underground_line_conductor_3;     
      conductor_N underground_line_conductor_3;     
      spacing line_spacing_17;     
}       

object line_configuration {     
      name line_configuration_40;     
      conductor_A overhead_line_conductor_5;     
      conductor_B overhead_line_conductor_5;     
      conductor_N overhead_line_conductor_5;     
      spacing line_spacing_18;     
}       

object line_configuration {     
      name line_configuration_41;     
      conductor_B overhead_line_conductor_5;     
      conductor_N overhead_line_conductor_5;     
      spacing line_spacing_13;     
}       

object line_configuration {     
      name line_configuration_42;     
      conductor_B underground_line_conductor_3;     
      conductor_N underground_line_conductor_3;     
      spacing line_spacing_19;     
}       

object line_configuration {     
      name line_configuration_43;     
      conductor_B overhead_line_conductor_7;     
      conductor_C overhead_line_conductor_7;     
      conductor_N overhead_line_conductor_7;     
      spacing line_spacing_20;     
}       

object line_configuration {     
      name line_configuration_44;     
      conductor_C overhead_line_conductor_9;     
      conductor_N overhead_line_conductor_9;     
      spacing line_spacing_16;     
}       

object line_configuration {     
      name line_configuration_45;     
      conductor_C overhead_line_conductor_7;     
      conductor_N overhead_line_conductor_7;     
      spacing line_spacing_16;     
}       

object line_configuration {     
      name line_configuration_46;     
      conductor_C overhead_line_conductor_8;     
      conductor_N overhead_line_conductor_8;     
      spacing line_spacing_16;     
}       

object line_configuration {     
      name line_configuration_47;     
      conductor_C overhead_line_conductor_8;     
      conductor_N overhead_line_conductor_8;     
      spacing line_spacing_21;     
}       

object line_configuration {     
      name line_configuration_48;     
      conductor_C underground_line_conductor_2;     
      conductor_N underground_line_conductor_2;     
      spacing line_spacing_14;     
}       

object line_configuration {     
      name line_configuration_49;     
      conductor_A overhead_line_conductor_10;     
      conductor_B overhead_line_conductor_10;     
      conductor_C overhead_line_conductor_10;     
      conductor_N overhead_line_conductor_10;     
      spacing line_spacing_12;     
}       

object line_configuration {     
      name line_configuration_50;     
      conductor_A overhead_line_conductor_8;     
      conductor_N overhead_line_conductor_8;     
      spacing line_spacing_11;     
}       

object line_configuration {     
      name line_configuration_51;     
      conductor_A overhead_line_conductor_8;     
      conductor_B overhead_line_conductor_8;     
      conductor_C overhead_line_conductor_8;     
      conductor_N overhead_line_conductor_8;     
      spacing line_spacing_22;     
}       

object line_configuration {     
      name line_configuration_52;     
      conductor_B overhead_line_conductor_8;     
      conductor_N overhead_line_conductor_8;     
      spacing line_spacing_13;     
}       

object line_configuration {     
      name line_configuration_53;     
      conductor_A underground_line_conductor_3;     
      conductor_C underground_line_conductor_3;     
      conductor_N underground_line_conductor_3;     
      spacing line_spacing_23;     
}       

object line_configuration {     
      name line_configuration_54;     
      conductor_A underground_line_conductor_3;     
      conductor_C underground_line_conductor_3;     
      conductor_N underground_line_conductor_3;     
      spacing line_spacing_24;     
}       

object line_configuration {     
      name line_configuration_55;     
      conductor_A overhead_line_conductor_8;     
      conductor_C overhead_line_conductor_8;     
      conductor_N overhead_line_conductor_8;     
      spacing line_spacing_23;     
}       

object line_configuration {     
      name line_configuration_56;     
      conductor_A overhead_line_conductor_5;     
      conductor_C overhead_line_conductor_5;     
      conductor_N overhead_line_conductor_5;     
      spacing line_spacing_23;     
}       

object line_configuration {     
      name line_configuration_57;     
      conductor_A overhead_line_conductor_7;     
      conductor_N overhead_line_conductor_7;     
      spacing line_spacing_11;     
}       

object line_configuration {     
      name line_configuration_58;     
      conductor_C underground_line_conductor_2;     
      conductor_N underground_line_conductor_2;     
      spacing line_spacing_16;     
}       

object line_spacing {     
      name line_spacing_11;     
      distance_AN 84.0 in;    
}       

object line_spacing {     
      name line_spacing_12;     
      distance_AB 57.6 in;    
      distance_BC 57.6 in;    
      distance_AC 57.6 in;    
      distance_AN 84.0 in;    
      distance_BN 84.0 in;    
      distance_CN 84.0 in;    
}       

object line_spacing {     
      name line_spacing_13;     
      distance_BN 84.0 in;    
}       

object line_spacing {     
      name line_spacing_14;     
      distance_CN 0.0 in;    
}       

object line_spacing {     
      name line_spacing_15;     
      distance_AB 0.0 in;    
      distance_BC 0.0 in;    
      distance_AC 0.0 in;    
      distance_AN 0.0 in;    
      distance_BN 0.0 in;    
      distance_CN 0.0 in;    
}       

object line_spacing {     
      name line_spacing_16;     
      distance_CN 84.0 in;    
}       

object line_spacing {     
      name line_spacing_17;     
      distance_AN 0.0 in;    
}       

object line_spacing {     
      name line_spacing_18;     
      distance_AB 57.6 in;    
      distance_AN 84.0 in;    
      distance_BN 84.0 in;    
}       

object line_spacing {     
      name line_spacing_19;     
      distance_BN 0.0 in;    
}       

object line_spacing {     
      name line_spacing_20;     
      distance_BC 57.6 in;    
      distance_BN 84.0 in;    
      distance_CN 84.0 in;    
}       

object line_spacing {     
      name line_spacing_21;     
      distance_CN 51.6 in;    
}       

object line_spacing {     
      name line_spacing_22;     
      distance_AB 57.6 in;    
      distance_BC 57.6 in;    
      distance_AC 57.6 in;    
      distance_AN 51.6 in;    
      distance_BN 51.6 in;    
      distance_CN 51.6 in;    
}       

object line_spacing {     
      name line_spacing_23;     
      distance_AC 57.6 in;    
      distance_AN 84.0 in;    
      distance_CN 84.0 in;    
}       

object line_spacing {     
      name line_spacing_24;     
      distance_AC 0.0 in;    
      distance_AN 0.0 in;    
      distance_CN 0.0 in;    
}       

object overhead_line_conductor {     
      name overhead_line_conductor_4;     
      //name 4/0 ACSR;    
      rating.summer.continuous 334.0;     
      geometric_mean_radius 0.00814 ft;    
      resistance 0.56300;     
}       

object overhead_line_conductor {     
      name overhead_line_conductor_5;     
      //name 4 CU;    
      rating.summer.continuous 149.0;     
      geometric_mean_radius 0.00663 ft;    
      resistance 1.50000;     
}       

object overhead_line_conductor {     
      name overhead_line_conductor_7;     
      //name 2 ACSR;    
      rating.summer.continuous 180.0;     
      geometric_mean_radius 0.00418 ft;    
      resistance 1.62570;     
}       

object overhead_line_conductor {     
      name overhead_line_conductor_8;     
      //name 1/0 AAC;    
      rating.summer.continuous 230.0;     
      geometric_mean_radius 0.01203 ft;    
      resistance 0.95300;     
}       

object overhead_line_conductor {     
      name overhead_line_conductor_9;     
      //name 4 AAAC;    
      rating.summer.continuous 120.0;     
      geometric_mean_radius 0.00700 ft;    
      resistance 2.40970;     
}       

object overhead_line_conductor {     
      name overhead_line_conductor_10;     
      //name 2 AAAC;    
      rating.summer.continuous 197.0;     
      geometric_mean_radius 0.00883 ft;    
      resistance 1.51970;     
}       

object transformer_configuration {     
      name transformer_configuration_662;     
      connect_type SINGLE_PHASE_CENTER_TAPPED;     
      install_type PADMOUNT;     
      primary_voltage 14376.02 V;    
      secondary_voltage 120 V;    
      power_rating 25.0;     
      powerA_rating 25.0;     
      resistance 0.00600;     
      reactance 0.00400;     
      shunt_impedance 339.610+367.059j;     
}       

object transformer_configuration {     
      name transformer_configuration_663;     
      connect_type SINGLE_PHASE_CENTER_TAPPED;     
      install_type POLETOP;     
      primary_voltage 14376.02 V;    
      secondary_voltage 120 V;    
      power_rating 75.0;     
      powerA_rating 75.0;     
      resistance 0.00200;     
      reactance 0.00133;     
      shunt_impedance 443.910+469.610j;     
}       

object transformer_configuration {     
      name transformer_configuration_664;     
      connect_type SINGLE_PHASE_CENTER_TAPPED;     
      install_type POLETOP;     
      primary_voltage 14376.02 V;    
      secondary_voltage 120 V;    
      power_rating 25.0;     
      powerA_rating 25.0;     
      resistance 0.00600;     
      reactance 0.00400;     
      shunt_impedance 339.610+365.517j;     
}       

object transformer_configuration {     
      name transformer_configuration_665;     
      connect_type SINGLE_PHASE_CENTER_TAPPED;     
      install_type POLETOP;     
      primary_voltage 14376.02 V;    
      secondary_voltage 120 V;    
      power_rating 15.0;     
      powerA_rating 15.0;     
      resistance 0.01000;     
      reactance 0.00667;     
      shunt_impedance 318.750+281.070j;     
}       

object transformer_configuration {     
      name transformer_configuration_666;     
      connect_type SINGLE_PHASE_CENTER_TAPPED;     
      install_type POLETOP;     
      primary_voltage 14376.02 V;    
      secondary_voltage 120 V;    
      power_rating 37.5;     
      powerA_rating 37.5;     
      resistance 0.00400;     
      reactance 0.00267;     
      shunt_impedance 365.685+387.035j;     
}       

object transformer_configuration {     
      name transformer_configuration_667;     
      connect_type SINGLE_PHASE_CENTER_TAPPED;     
      install_type PADMOUNT;     
      primary_voltage 14376.02 V;    
      secondary_voltage 120 V;    
      power_rating 25.0;     
      powerA_rating 25.0;     
      resistance 0.00600;     
      reactance 0.00400;     
      shunt_impedance 339.610+319.912j;     
}       

object transformer_configuration {     
      name transformer_configuration_668;     
      connect_type SINGLE_PHASE_CENTER_TAPPED;     
      install_type PADMOUNT;     
      primary_voltage 14376.02 V;    
      secondary_voltage 120 V;    
      power_rating 10.0;     
      powerA_rating 10.0;     
      resistance 0.015;     
      reactance 0.01;     
      shunt_impedance 308.320+291.012j;     
}       

object transformer_configuration {     
      name transformer_configuration_669;     
      connect_type SINGLE_PHASE_CENTER_TAPPED;     
      install_type PADMOUNT;     
      primary_voltage 14376.02 V;    
      secondary_voltage 120 V;    
      power_rating 15.0;     
      powerA_rating 15.0;     
      resistance 0.01000;     
      reactance 0.00667;     
      shunt_impedance 318.750+269.156j;     
}       

object transformer_configuration {     
      name transformer_configuration_670;     
      connect_type SINGLE_PHASE_CENTER_TAPPED;     
      install_type POLETOP;     
      primary_voltage 14376.02 V;    
      secondary_voltage 120 V;    
      power_rating 100.0;     
      powerA_rating 100.0;     
      resistance 0.00150;     
      reactance 0.00100;     
      shunt_impedance 496.060+550.637j;     
}       

object transformer_configuration {     
      name transformer_configuration_671;     
      connect_type SINGLE_PHASE_CENTER_TAPPED;     
      install_type PADMOUNT;     
      primary_voltage 14376.02 V;    
      secondary_voltage 120 V;    
      power_rating 50.0;     
      powerA_rating 50.0;     
      resistance 0.00300;     
      reactance 0.00200;     
      shunt_impedance 391.760+398.618j;     
}       

object transformer_configuration {     
      name transformer_configuration_672;     
      connect_type SINGLE_PHASE_CENTER_TAPPED;     
      install_type POLETOP;     
      primary_voltage 14376.02 V;    
      secondary_voltage 120 V;    
      power_rating 50.0;     
      powerA_rating 50.0;     
      resistance 0.00300;     
      reactance 0.00200;     
      shunt_impedance 391.760+431.077j;     
}       

object transformer_configuration {     
      name transformer_configuration_673;     
      connect_type SINGLE_PHASE_CENTER_TAPPED;     
      install_type PADMOUNT;     
      primary_voltage 14376.02 V;    
      secondary_voltage 120 V;    
      power_rating 25.0;     
      powerB_rating 25.0;     
      resistance 0.00600;     
      reactance 0.00400;     
      shunt_impedance 339.610+390.925j;     
}       

object transformer_configuration {     
      name transformer_configuration_674;     
      connect_type SINGLE_PHASE_CENTER_TAPPED;     
      install_type PADMOUNT;     
      primary_voltage 14376.02 V;    
      secondary_voltage 120 V;    
      power_rating 25.0;     
      powerC_rating 25.0;     
      resistance 0.00600;     
      reactance 0.00400;     
      shunt_impedance 339.610+300.988j;     
}       

object transformer_configuration {     
      name transformer_configuration_675;     
      connect_type SINGLE_PHASE_CENTER_TAPPED;     
      install_type POLETOP;     
      primary_voltage 14376.02 V;    
      secondary_voltage 120 V;    
      power_rating 15.0;     
      powerC_rating 15.0;     
      resistance 0.01000;     
      reactance 0.00667;     
      shunt_impedance 318.750+339.246j;     
}       

object transformer_configuration {     
      name transformer_configuration_676;     
      connect_type SINGLE_PHASE_CENTER_TAPPED;     
      install_type POLETOP;     
      primary_voltage 14376.02 V;    
      secondary_voltage 120 V;    
      power_rating 87.5;     
      powerC_rating 87.5;     
      resistance 0.00171;     
      reactance 0.00114;     
      shunt_impedance 469.985+469.385j;     
}       

object transformer_configuration {     
      name transformer_configuration_677;     
      connect_type SINGLE_PHASE_CENTER_TAPPED;     
      install_type PADMOUNT;     
      primary_voltage 14376.02 V;    
      secondary_voltage 120 V;    
      power_rating 25.0;     
      powerC_rating 25.0;     
      resistance 0.00600;     
      reactance 0.00400;     
      shunt_impedance 339.610+370.659j;     
}       

object transformer_configuration {     
      name transformer_configuration_678;     
      connect_type SINGLE_PHASE_CENTER_TAPPED;     
      install_type POLETOP;     
      primary_voltage 14376.02 V;    
      secondary_voltage 120 V;    
      power_rating 25.0;     
      powerC_rating 25.0;     
      resistance 0.00600;     
      reactance 0.00400;     
      shunt_impedance 339.610+377.228j;     
}       

object transformer_configuration {     
      name transformer_configuration_679;     
      connect_type SINGLE_PHASE_CENTER_TAPPED;     
      install_type POLETOP;     
      primary_voltage 14376.02 V;    
      secondary_voltage 120 V;    
      power_rating 50.0;     
      powerC_rating 50.0;     
      resistance 0.00300;     
      reactance 0.00200;     
      shunt_impedance 391.760+423.903j;     
}       

object transformer_configuration {     
      name transformer_configuration_705;     
      connect_type WYE_WYE;     
      install_type PADMOUNT;     
      primary_voltage 24900.000 V;    
      secondary_voltage 480 V;    
      power_rating 25.0;     
      powerA_rating 25.0;     
      resistance 0.00400;     
      reactance 0.02000;     
      shunt_impedance 339.610+311.843j;     
}       

object transformer_configuration {     
      name transformer_configuration_706;     
      connect_type WYE_WYE;     
      install_type PADMOUNT;     
      primary_voltage 24900.000 V;    
      secondary_voltage 480 V;    
      power_rating 25.0;     
      powerB_rating 25.0;     
      resistance 0.00400;     
      reactance 0.02000;     
      shunt_impedance 339.610+335.314j;     
}       

object transformer_configuration {     
      name transformer_configuration_707;     
      connect_type WYE_WYE;     
      install_type POLETOP;     
      primary_voltage 24900.000 V;    
      secondary_voltage 480 V;    
      power_rating 25.0;     
      powerB_rating 25.0;     
      resistance 0.00400;     
      reactance 0.02000;     
      shunt_impedance 339.610+348.581j;     
}       

object transformer_configuration {     
      name transformer_configuration_708;     
      connect_type WYE_WYE;     
      install_type POLETOP;     
      primary_voltage 24900.000 V;    
      secondary_voltage 480 V;    
      power_rating 50.0;     
      powerC_rating 50.0;     
      resistance 0.00200;     
      reactance 0.01000;     
      shunt_impedance 391.760+515.498j;     
}       

object transformer_configuration {     
      name transformer_configuration_709;     
      connect_type WYE_WYE;     
      install_type POLETOP;     
      primary_voltage 24900.000 V;    
      secondary_voltage 480 V;    
      power_rating 25.0;     
      powerA_rating 25.0;     
      resistance 0.00400;     
      reactance 0.02000;     
      shunt_impedance 339.610+381.267j;     
}       

object transformer_configuration {     
      name transformer_configuration_710;     
      connect_type WYE_WYE;     
      install_type PADMOUNT;     
      primary_voltage 24900.000 V;    
      secondary_voltage 480 V;    
      power_rating 225.0;     
      powerA_rating 75.0;     
      powerB_rating 75.0;     
      powerC_rating 75.0;     
      resistance 0.00044;     
      reactance 0.00222;     
      shunt_impedance 756.810+932.438j;     
}       

object transformer_configuration {     
      name transformer_configuration_711;     
      connect_type WYE_WYE;     
      install_type PADMOUNT;     
      primary_voltage 24900.000 V;    
      secondary_voltage 480 V;    
      power_rating 5.0;     
      powerA_rating 0.0;     
      powerB_rating 0.0;     
      powerC_rating 5.0;     
      resistance 0.01;     
      reactance 0.05;     
      shunt_impedance 297.890+310.237j;     
}       

object transformer_configuration {     
      name transformer_configuration_712;     
      connect_type WYE_WYE;     
      install_type PADMOUNT;     
      primary_voltage 24900.000 V;    
      secondary_voltage 480 V;    
      power_rating 25.0;     
      powerA_rating 0.0;     
      powerB_rating 0.0;     
      powerC_rating 25.0;     
      resistance 0.00400;     
      reactance 0.02000;     
      shunt_impedance 339.610+346.804j;     
}       

object transformer_configuration {     
      name transformer_configuration_713;     
      connect_type WYE_WYE;     
      install_type PADMOUNT;     
      primary_voltage 24900.000 V;    
      secondary_voltage 480 V;    
      power_rating 25.0;     
      powerC_rating 25.0;     
      resistance 0.00400;     
      reactance 0.02000;     
      shunt_impedance 339.610+360.434j;     
}       

object transformer_configuration {     
      name transformer_configuration_714;     
      connect_type WYE_WYE;     
      install_type PADMOUNT;     
      primary_voltage 24900.000 V;    
      secondary_voltage 480 V;    
      power_rating 175.0;     
      powerC_rating 175.0;     
      resistance 0.00057;     
      reactance 0.00286;     
      shunt_impedance 652.510+618.072j;     
}       

object transformer_configuration {     
      name transformer_configuration_715;     
      connect_type WYE_WYE;     
      install_type PADMOUNT;     
      primary_voltage 24900.000 V;    
      secondary_voltage 480 V;    
      power_rating 75.0;     
      powerC_rating 75.0;     
      resistance 0.00133;     
      reactance 0.00667;     
      shunt_impedance 443.910+499.026j;     
}       

object transformer_configuration {     
      name transformer_configuration_716;     
      connect_type WYE_WYE;     
      install_type POLETOP;     
      primary_voltage 24900.000 V;    
      secondary_voltage 480 V;    
      power_rating 37.5;     
      powerC_rating 37.5;     
      resistance 0.00267;     
      reactance 0.01333;     
      shunt_impedance 365.685+359.921j;     
}       

object transformer_configuration {     
      name transformer_configuration_717;     
      connect_type WYE_WYE;     
      install_type PADMOUNT;     
      primary_voltage 24900.000 V;    
      secondary_voltage 480 V;    
      power_rating 100.0;     
      powerC_rating 100.0;     
      resistance 0.00100;     
      reactance 0.00500;     
      shunt_impedance 496.060+427.921j;     
}       

object transformer_configuration {     
      name transformer_configuration_718;     
      connect_type WYE_WYE;     
      install_type PADMOUNT;     
      primary_voltage 24900.000 V;    
      secondary_voltage 480 V;    
      power_rating 85.0;     
      powerA_rating 10.0;     
      powerB_rating 25.0;     
      powerC_rating 50.0;     
      resistance 0.00118;     
      reactance 0.00588;     
      shunt_impedance 464.770+505.244j;     
}       

object transformer_configuration {     
      name transformer_configuration_719;     
      connect_type WYE_WYE;     
      install_type PADMOUNT;     
      primary_voltage 24900.000 V;    
      secondary_voltage 480 V;    
      power_rating 150.0;     
      powerA_rating 50.0;     
      powerB_rating 50.0;     
      powerC_rating 50.0;     
      resistance 0.00067;     
      reactance 0.00333;     
      shunt_impedance 600.360+506.192j;     
}       

object transformer_configuration {     
      name transformer_configuration_720;     
      connect_type WYE_WYE;     
      install_type PADMOUNT;     
      primary_voltage 24900.000 V;    
      secondary_voltage 480 V;    
      power_rating 15.0;     
      powerA_rating 0.0;     
      powerB_rating 0.0;     
      powerC_rating 15.0;     
      resistance 0.00667;     
      reactance 0.03333;     
      shunt_impedance 318.750+259.964j;     
}       

object transformer_configuration {     
      name transformer_configuration_721;     
      connect_type WYE_WYE;     
      install_type PADMOUNT;     
      primary_voltage 24900.000 V;    
      secondary_voltage 480 V;    
      power_rating 10.0;     
      powerC_rating 10.0;     
      resistance 0.01;     
      reactance 0.05;     
      shunt_impedance 308.320+317.212j;     
}       

object transformer_configuration {     
      name transformer_configuration_722;     
      connect_type WYE_WYE;     
      install_type PADMOUNT;     
      primary_voltage 24900.000 V;    
      secondary_voltage 480 V;    
      power_rating 525.0;     
      powerA_rating 175.0;     
      powerB_rating 175.0;     
      powerC_rating 175.0;     
      resistance 0.00019;     
      reactance 0.00095;     
      shunt_impedance 1382.610+1251.136j;     
}       

object transformer_configuration {     
      name transformer_configuration_723;     
      connect_type WYE_WYE;     
      install_type PADMOUNT;     
      primary_voltage 24900.000 V;    
      secondary_voltage 480 V;    
      power_rating 112.5;     
      powerA_rating 37.5;     
      powerB_rating 37.5;     
      powerC_rating 37.5;     
      resistance 0.00089;     
      reactance 0.00444;     
      shunt_impedance 522.135+474.582j;     
}       

object transformer_configuration {     
      name transformer_configuration_724;     
      connect_type WYE_WYE;     
      install_type POLETOP;     
      primary_voltage 24900.000 V;    
      secondary_voltage 480 V;    
      power_rating 75.0;     
      powerA_rating 25.0;     
      powerB_rating 25.0;     
      powerC_rating 25.0;     
      resistance 0.00133;     
      reactance 0.00667;     
      shunt_impedance 443.910+436.721j;     
}       

object transformer_configuration {     
      name transformer_configuration_725;     
      connect_type WYE_WYE;     
      install_type PADMOUNT;     
      primary_voltage 24900.000 V;    
      secondary_voltage 480 V;    
      power_rating 125.0;     
      powerB_rating 125.0;     
      resistance 0.00080;     
      reactance 0.00400;     
      shunt_impedance 548.210+521.408j;     
}       

object transformer_configuration {     
      name transformer_configuration_726;     
      connect_type WYE_WYE;     
      install_type POLETOP;     
      primary_voltage 24900.000 V;    
      secondary_voltage 480 V;    
      power_rating 25.0;     
      powerC_rating 25.0;     
      resistance 0.00400;     
      reactance 0.02000;     
      shunt_impedance 339.610+332.044j;     
}       

object transformer_configuration {     
      name transformer_configuration_727;     
      connect_type WYE_WYE;     
      install_type POLETOP;     
      primary_voltage 24900.000 V;    
      secondary_voltage 480 V;    
      power_rating 10.0;     
      powerC_rating 10.0;     
      resistance 0.01;     
      reactance 0.05;     
      shunt_impedance 308.320+316.708j;     
}       

object transformer_configuration {     
      name transformer_configuration_728;     
      connect_type WYE_WYE;     
      install_type POLETOP;     
      primary_voltage 24900.000 V;    
      secondary_voltage 480 V;    
      power_rating 15.0;     
      powerC_rating 15.0;     
      resistance 0.00667;     
      reactance 0.03333;     
      shunt_impedance 318.750+281.503j;     
}       

object transformer_configuration {     
      name transformer_configuration_729;     
      connect_type WYE_WYE;     
      install_type POLETOP;     
      primary_voltage 24900.000 V;    
      secondary_voltage 480 V;    
      power_rating 500.0;     
      powerC_rating 500.0;     
      resistance 0.00020;     
      reactance 0.00100;     
      shunt_impedance 1330.460+1167.581j;     
}       

object transformer_configuration {     
      name transformer_configuration_730;     
      connect_type WYE_WYE;     
      install_type POLETOP;     
      primary_voltage 24900.000 V;    
      secondary_voltage 480 V;    
      power_rating 100.0;     
      powerC_rating 100.0;     
      resistance 0.00100;     
      reactance 0.00500;     
      shunt_impedance 496.060+391.913j;     
}       

object transformer_configuration {     
      name transformer_configuration_731;     
      connect_type WYE_WYE;     
      install_type POLETOP;     
      primary_voltage 24900.000 V;    
      secondary_voltage 480 V;    
      power_rating 15.0;     
      powerA_rating 15.0;     
      resistance 0.00667;     
      reactance 0.03333;     
      shunt_impedance 318.750+306.311j;     
}       

object transformer_configuration {     
      name transformer_configuration_732;     
      connect_type WYE_WYE;     
      install_type PADMOUNT;     
      primary_voltage 24900.000 V;    
      secondary_voltage 480 V;    
      power_rating 15.0;     
      powerA_rating 15.0;     
      resistance 0.00667;     
      reactance 0.03333;     
      shunt_impedance 318.750+339.924j;     
}       

object transformer_configuration {     
      name transformer_configuration_733;     
      connect_type WYE_WYE;     
      install_type POLETOP;     
      primary_voltage 24900.000 V;    
      secondary_voltage 480 V;    
      power_rating 150.0;     
      powerA_rating 50.0;     
      powerB_rating 50.0;     
      powerC_rating 50.0;     
      resistance 0.00067;     
      reactance 0.00333;     
      shunt_impedance 600.360+558.199j;     
}       

object transformer_configuration {     
      name transformer_configuration_734;     
      connect_type WYE_WYE;     
      install_type POLETOP;     
      primary_voltage 24900.000 V;    
      secondary_voltage 480 V;    
      power_rating 3000.0;     
      powerA_rating 1000.0;     
      powerB_rating 1000.0;     
      powerC_rating 1000.0;     
      resistance 0.00003;     
      reactance 0.00017;     
      shunt_impedance 6545.460+6873.602j;     
}       

object transformer_configuration {     
      name transformer_configuration_735;     
      connect_type WYE_WYE;     
      install_type POLETOP;     
      primary_voltage 24900.000 V;    
      secondary_voltage 480 V;    
      power_rating 15.0;     
      powerA_rating 0.0;     
      powerB_rating 0.0;     
      powerC_rating 15.0;     
      resistance 0.00667;     
      reactance 0.03333;     
      shunt_impedance 318.750+335.973j;     
}       

object transformer_configuration {     
      name transformer_configuration_736;     
      connect_type WYE_WYE;     
      install_type POLETOP;     
      primary_voltage 24900.000 V;    
      secondary_voltage 480 V;    
      power_rating 2250.0;     
      powerA_rating 750.0;     
      powerB_rating 750.0;     
      powerC_rating 750.0;     
      resistance 0.00004;     
      reactance 0.00022;     
      shunt_impedance 4980.960+5474.449j;     
}       

object transformer_configuration {     
      name transformer_configuration_737;     
      connect_type WYE_WYE;     
      install_type POLETOP;     
      primary_voltage 24900.000 V;    
      secondary_voltage 480 V;    
      power_rating 1500.0;     
      powerA_rating 500.0;     
      powerB_rating 500.0;     
      powerC_rating 500.0;     
      resistance 0.00007;     
      reactance 0.00033;     
      shunt_impedance 3416.460+3754.477j;     
}       

object transformer_configuration {     
      name transformer_configuration_738;     
      connect_type WYE_WYE;     
      install_type POLETOP;     
      primary_voltage 24900.000 V;    
      secondary_voltage 480 V;    
      power_rating 175.0;     
      powerC_rating 175.0;     
      resistance 0.00057;     
      reactance 0.00286;     
      shunt_impedance 652.510+607.562j;     
}       

object transformer_configuration {     
      name transformer_configuration_739;     
      connect_type WYE_WYE;     
      install_type POLETOP;     
      primary_voltage 24900.000 V;    
      secondary_voltage 480 V;    
      power_rating 50.0;     
      powerA_rating 50.0;     
      resistance 0.00200;     
      reactance 0.01000;     
      shunt_impedance 391.760+358.193j;     
}       

object transformer_configuration {     
      name transformer_configuration_740;     
      connect_type WYE_WYE;     
      install_type POLETOP;     
      primary_voltage 24900.000 V;    
      secondary_voltage 480 V;    
      power_rating 137.5;     
      powerA_rating 50.0;     
      powerB_rating 37.5;     
      powerC_rating 50.0;     
      resistance 0.00073;     
      reactance 0.00364;     
      shunt_impedance 574.285+577.064j;     
}       

object transformer_configuration {     
      name transformer_configuration_741;     
      connect_type WYE_WYE;     
      install_type POLETOP;     
      primary_voltage 24900.000 V;    
      secondary_voltage 480 V;    
      power_rating 50.0;     
      powerB_rating 50.0;     
      resistance 0.00200;     
      reactance 0.01000;     
      shunt_impedance 391.760+365.714j;     
}       

object transformer_configuration {     
      name transformer_configuration_742;     
      connect_type WYE_WYE;     
      install_type POLETOP;     
      primary_voltage 24900.000 V;    
      secondary_voltage 480 V;    
      power_rating 175.0;     
      powerB_rating 175.0;     
      resistance 0.00057;     
      reactance 0.00286;     
      shunt_impedance 652.510+747.303j;     
}       

object transformer_configuration {     
      name transformer_configuration_743;     
      connect_type WYE_WYE;     
      install_type PADMOUNT;     
      primary_voltage 24900.000 V;    
      secondary_voltage 480 V;    
      power_rating 175.0;     
      powerB_rating 175.0;     
      resistance 0.00057;     
      reactance 0.00286;     
      shunt_impedance 652.510+742.546j;     
}       

object transformer_configuration {     
      name transformer_configuration_744;     
      connect_type WYE_WYE;     
      install_type POLETOP;     
      primary_voltage 24900.000 V;    
      secondary_voltage 480 V;    
      power_rating 50.0;     
      powerA_rating 50.0;     
      powerC_rating 0.0;     
      resistance 0.00200;     
      reactance 0.01000;     
      shunt_impedance 391.760+395.487j;     
}       

object transformer_configuration {     
      name transformer_configuration_745;     
      connect_type WYE_WYE;     
      install_type POLETOP;     
      primary_voltage 24900.000 V;    
      secondary_voltage 480 V;    
      power_rating 75.0;     
      powerA_rating 75.0;     
      resistance 0.00133;     
      reactance 0.00667;     
      shunt_impedance 443.910+424.949j;     
}       

object transformer_configuration {     
      name transformer_configuration_746;     
      connect_type WYE_WYE;     
      install_type POLETOP;     
      primary_voltage 24900.000 V;    
      secondary_voltage 480 V;    
      power_rating 15.0;     
      powerA_rating 15.0;     
      powerC_rating 0.0;     
      resistance 0.00667;     
      reactance 0.03333;     
      shunt_impedance 318.750+335.032j;     
}       

object transformer_configuration {     
      name transformer_configuration_747;     
      connect_type WYE_WYE;     
      install_type POLETOP;     
      primary_voltage 24900.000 V;    
      secondary_voltage 480 V;    
      power_rating 37.5;     
      powerA_rating 37.5;     
      resistance 0.00267;     
      reactance 0.01333;     
      shunt_impedance 365.685+341.686j;     
}       

object transformer_configuration {     
      name transformer_configuration_748;     
      connect_type WYE_WYE;     
      install_type POLETOP;     
      primary_voltage 24900.000 V;    
      secondary_voltage 480 V;    
      power_rating 137.5;     
      powerA_rating 87.5;     
      powerC_rating 50.0;     
      resistance 0.00073;     
      reactance 0.00364;     
      shunt_impedance 574.285+567.105j;     
}       

object transformer_configuration {     
      name transformer_configuration_749;     
      connect_type WYE_WYE;     
      install_type PADMOUNT;     
      primary_voltage 24900.000 V;    
      secondary_voltage 480 V;    
      power_rating 10.0;     
      powerA_rating 10.0;     
      resistance 0.01;     
      reactance 0.05;     
      shunt_impedance 308.320+291.965j;     
}       

object transformer_configuration {     
      name transformer_configuration_750;     
      connect_type WYE_WYE;     
      install_type POLETOP;     
      primary_voltage 24900.000 V;    
      secondary_voltage 480 V;    
      power_rating 100.0;     
      powerA_rating 100.0;     
      resistance 0.00100;     
      reactance 0.00500;     
      shunt_impedance 496.060+501.298j;     
}       

object transformer_configuration {     
      name transformer_configuration_751;     
      connect_type WYE_WYE;     
      install_type POLETOP;     
      primary_voltage 24900.000 V;    
      secondary_voltage 480 V;    
      power_rating 10.0;     
      powerA_rating 10.0;     
      resistance 0.01;     
      reactance 0.05;     
      shunt_impedance 308.320+343.109j;     
}       

object transformer_configuration {     
      name transformer_configuration_752;     
      connect_type WYE_WYE;     
      install_type PADMOUNT;     
      primary_voltage 24900.000 V;    
      secondary_voltage 480 V;    
      power_rating 50.0;     
      powerA_rating 50.0;     
      resistance 0.00200;     
      reactance 0.01000;     
      shunt_impedance 391.760+420.847j;     
}       

object triplex_line_conductor {     
      name triplex_4/0 AA;    
      resistance 0.48;     
      geometric_mean_radius 0.0158;     
}       

object triplex_line_configuration {     
      name triplex_line_configuration_1;     
      conductor_1 triplex_4/0 AA;    
      conductor_2 triplex_4/0 AA;    
      conductor_N triplex_4/0 AA;    
      insulation_thickness 0.08;     
      diameter 0.522;     
}       

object underground_line_conductor {     
      name underground_line_conductor_2;     
      //name 1/0 AAC (Conc);   
      rating.summer.continuous 142.0;     
      outer_diameter 1.27;     
      conductor_gmr 0.01142 ft;    
      conductor_diameter 0.362;     
      conductor_resistance 0.88704;     
      neutral_gmr 0.0489686771417213 ft;    
      neutral_resistance 13.86528;     
      neutral_diameter 0.0641;     
      neutral_strands 16.0;     
      shield_gmr 0.00;     
      shield_resistance 0.00;     
}       

object underground_line_conductor {     
      name underground_line_conductor_3;     
      //name 4/0 AAC (Conc);   
      rating.summer.continuous 214.0;     
      outer_diameter 1.32;     
      conductor_gmr 0.0177 ft;    
      conductor_diameter 0.528;     
      conductor_resistance 0.433488;     
      neutral_gmr 0.0485380344339232 ft;    
      neutral_resistance 13.5696;     
      neutral_diameter 0.0641;     
      neutral_strands 11.0;     
      shield_gmr 0.00;     
      shield_resistance 0.00;     
}       

object underground_line_conductor {     
      name underground_line_conductor_6;     
      //name 1000 AAC (Tape);   
      rating.summer.continuous 775.0;     
      outer_diameter 1.87;     
      conductor_gmr 0.0371 ft;    
      conductor_diameter 1.15;     
      conductor_resistance 0.0222;     
      neutral_gmr 0.0732739718442675 ft;    
      neutral_resistance 0.05;     
      neutral_diameter 0.102;     
      neutral_strands 20.0;     
      shield_gmr 0.00;     
      shield_resistance 0.00;     
}       

object transformer_configuration {
     name trans_config_to_feeder;
     connect_type WYE_WYE;
     install_type PADMOUNT;
     primary_voltage 230000;
     secondary_voltage 24900.000;
     power_rating 2.8 MVA;
     impedance 0.00033+0.0022j;
}

//Start actual feeder

object meter {
     name network_node;
     bustype SWING;
     nominal_voltage 230000;
     object player {
          property voltage_A;
          loop 100;
          file V_A.player;
     };
     object player {
          property voltage_B;
          loop 100;
          file V_B.player;
     };
     object player {
          property voltage_C;
          loop 100;
          file V_C.player;
     };
     phases ABCN;
}

object transformer {
     name substation_transformer;
     from network_node;
     to R1-25-00-1_node_324;
     phases ABCN;
     configuration trans_config_to_feeder;
}

        
object regulator {     
      name R1-25-00-1_reg_1;     
      from R1-25-00-1_node_324;     
      to R1-25-00-1_meter_91;     
      phases ABCN;     
      configuration feeder_reg_cfg;     
}       
object regulator {     
      name R1-25-00-1_reg_2;     
      from R1-25-00-1_node_76_2;     
      to R1-25-00-1_node_77;     
      phases ABCN;     
      configuration votlage_reg_cfg;     
}       
object capacitor {     
      name R1-25-00-1_cap_1;     
      phases ABCN;     
      pt_phase AN;     
      parent R1-25-00-1_node_163;     
      phases_connected ABC;     
      control MANUAL;     
      switchA CLOSED;     
      switchB CLOSED;     
      switchC CLOSED;     
      voltage_set_high 14500;     
      voltage_set_low 13500;     
      capacitor_A 0.15 MVAr;    
      capacitor_B 0.15 MVAr;    
      capacitor_C 0.15 MVAr;    
      control_level INDIVIDUAL;     
      time_delay 30.0;     
      dwell_time 30.0;     
      cap_nominal_voltage 14380;     
      nominal_voltage 14376.02;     
}       
object fuse {     
      name R1-25-00-1_fuse_1;     
      phases AN;     
      from R1-25-00-1_node_148;     
      to R1-25-00-1_node_292;     
      current_limit 50000;// 1000;    
      status CLOSED;     
}       
object fuse {     
      name R1-25-00-1_fuse_2;     
      phases BN;     
      from R1-25-00-1_node_297;     
      to R1-25-00-1_node_298;     
      current_limit 50000;// 1000;    
      status CLOSED;     
}       
object fuse {     
      name R1-25-00-1_fuse_3;     
      phases CN;     
      from R1-25-00-1_node_64;     
      to R1-25-00-1_node_65;     
      current_limit 50000;// 1000;    
      status CLOSED;     
}       
object fuse {     
      name R1-25-00-1_fuse_4;     
      phases AN;     
      from R1-25-00-1_node_145;     
      to R1-25-00-1_node_146;     
      current_limit 50000;// 5000;    
      status CLOSED;     
}       
object fuse {     
      name R1-25-00-1_fuse_5;     
      phases ABCN;     
      from R1-25-00-1_node_153;     
      to R1-25-00-1_node_155;     
      current_limit 50000;// 5000;    
      status CLOSED;     
}       
object fuse {     
      name R1-25-00-1_fuse_6;     
      phases ABCN;     
      from R1-25-00-1_node_164;     
      to R1-25-00-1_node_165;     
      current_limit 50000;// 5000;    
      status CLOSED;     
}       
object fuse {     
      name R1-25-00-1_fuse_7;     
      phases AN;     
      from R1-25-00-1_node_207;     
      to R1-25-00-1_node_208;     
      current_limit 50000;// 2500;    
      status CLOSED;     
}       
object fuse {     
      name R1-25-00-1_fuse_8;     
      phases ABCN;     
      from R1-25-00-1_node_207;     
      to R1-25-00-1_node_213;     
      current_limit 50000;// 3000;    
      status CLOSED;     
}       
object fuse {     
      name R1-25-00-1_fuse_9;     
      phases AN;     
      from R1-25-00-1_node_244;     
      to R1-25-00-1_node_250;     
      current_limit 50000;// 3000;    
      status CLOSED;     
}       
object fuse {     
      name R1-25-00-1_fuse_10;     
      phases AN;     
      from R1-25-00-1_node_259;     
      to R1-25-00-1_node_261;     
      current_limit 50000;// 2000;    
      status CLOSED;     
}       
object fuse {     
      name R1-25-00-1_fuse_11;     
      phases CN;     
      from R1-25-00-1_node_313;     
      to R1-25-00-1_node_319;     
      current_limit 50000;// 1000;    
      status CLOSED;     
}       

object node {
      name R1-25-00-1_load_1;     
      parent R1-25-00-1_meter_1;     
      phases AN;     
      nominal_voltage 480.00;
}


object node {
      name R1-25-00-1_load_2;     
      parent R1-25-00-1_meter_2;     
      phases AN;     
      nominal_voltage 480.00;
}


object node {
      name R1-25-00-1_load_3;     
      parent R1-25-00-1_meter_3;     
      phases AN;     
      nominal_voltage 480.00;
}


object node {
      name R1-25-00-1_load_4;     
      parent R1-25-00-1_meter_4;     
      phases AN;     
      nominal_voltage 480.00;
}


object node {
      name R1-25-00-1_load_5;     
      parent R1-25-00-1_meter_5;     
      phases BN;     
      nominal_voltage 480.00;
}


object node {
      name R1-25-00-1_load_6;     
      parent R1-25-00-1_meter_6;     
      phases BN;     
      nominal_voltage 480.00;
}


object node {
      name R1-25-00-1_load_7;     
      parent R1-25-00-1_meter_7;     
      phases BN;     
      nominal_voltage 480.00;
}


object node {
      name R1-25-00-1_load_8;     
      parent R1-25-00-1_meter_8;     
      phases CN;     
      nominal_voltage 480.00;
}


object node {
      name R1-25-00-1_load_9;     
      parent R1-25-00-1_meter_9;     
      phases AN;     
      nominal_voltage 480.00;
}


object node {
      name R1-25-00-1_load_10;     
      parent R1-25-00-1_meter_10;     
      phases ABCN;     
      nominal_voltage 480.00;
}


object node {
      name R1-25-00-1_load_11;     
      parent R1-25-00-1_meter_11;     
      phases ABCN;     
      nominal_voltage 480.00;
}


object node {
      name R1-25-00-1_load_12;     
      parent R1-25-00-1_meter_12;     
      phases ABCN;     
      nominal_voltage 480.00;
}


object node {
      name R1-25-00-1_load_13;     
      parent R1-25-00-1_meter_13;     
      phases CN;     
      nominal_voltage 480.00;
}


object node {
      name R1-25-00-1_load_14;     
      parent R1-25-00-1_meter_14;     
      phases CN;     
      nominal_voltage 480.00;
}


object node {
      name R1-25-00-1_load_15;     
      parent R1-25-00-1_meter_15;     
      phases CN;     
      nominal_voltage 480.00;
}


object node {
      name R1-25-00-1_load_16;     
      parent R1-25-00-1_meter_16;     
      phases CN;     
      nominal_voltage 480.00;
}


object node {
      name R1-25-00-1_load_17;     
      parent R1-25-00-1_meter_17;     
      phases CN;     
      nominal_voltage 480.00;
}


object node {
      name R1-25-00-1_load_18;     
      parent R1-25-00-1_meter_18;     
      phases ABCN;     
      nominal_voltage 480.00;
}


object node {
      name R1-25-00-1_load_19;     
      parent R1-25-00-1_meter_19;     
      phases ABCN;     
      nominal_voltage 480.00;
}


object node {
      name R1-25-00-1_load_20;     
      parent R1-25-00-1_meter_20;     
      phases ABCN;     
      nominal_voltage 480.00;
}


object node {
      name R1-25-00-1_load_21;     
      parent R1-25-00-1_meter_21;     
      phases ABCN;     
      nominal_voltage 480.00;
}


object node {
      name R1-25-00-1_load_22;     
      parent R1-25-00-1_meter_22;     
      phases CN;     
      nominal_voltage 480.00;
}


object node {
      name R1-25-00-1_load_23;     
      parent R1-25-00-1_meter_23;     
      phases ABCN;     
      nominal_voltage 480.00;
}


object node {
      name R1-25-00-1_load_24;     
      parent R1-25-00-1_meter_24;     
      phases ABCN;     
      nominal_voltage 480.00;
}


object node {
      name R1-25-00-1_load_25;     
      parent R1-25-00-1_meter_25;     
      phases ABCN;     
      nominal_voltage 480.00;
}


object node {
      name R1-25-00-1_load_26;     
      parent R1-25-00-1_meter_26;     
      phases BN;     
      nominal_voltage 480.00;
}


object node {
      name R1-25-00-1_load_27;     
      parent R1-25-00-1_meter_27;     
      phases BN;     
      nominal_voltage 480.00;
}


object node {
      name R1-25-00-1_load_28;     
      parent R1-25-00-1_meter_28;     
      phases CN;     
      nominal_voltage 480.00;
}


object node {
      name R1-25-00-1_load_29;     
      parent R1-25-00-1_meter_29;     
      phases CN;     
      nominal_voltage 480.00;
}


object node {
      name R1-25-00-1_load_30;     
      parent R1-25-00-1_meter_30;     
      phases CN;     
      nominal_voltage 480.00;
}


object node {
      name R1-25-00-1_load_31;     
      parent R1-25-00-1_meter_31;     
      phases CN;     
      nominal_voltage 480.00;
}


object node {
      name R1-25-00-1_load_32;     
      parent R1-25-00-1_meter_32;     
      phases CN;     
      nominal_voltage 480.00;
}


object node {
      name R1-25-00-1_load_33;     
      parent R1-25-00-1_meter_33;     
      phases CN;     
      nominal_voltage 480.00;
}


object node {
      name R1-25-00-1_load_34;     
      parent R1-25-00-1_meter_34;     
      phases CN;     
      nominal_voltage 480.00;
}


object node {
      name R1-25-00-1_load_35;     
      parent R1-25-00-1_meter_35;     
      phases CN;     
      nominal_voltage 480.00;
}


object node {
      name R1-25-00-1_load_36;     
      parent R1-25-00-1_meter_36;     
      phases CN;     
      nominal_voltage 480.00;
}


object node {
      name R1-25-00-1_load_37;     
      parent R1-25-00-1_meter_37;     
      phases CN;     
      nominal_voltage 480.00;
}


object node {
      name R1-25-00-1_load_38;     
      parent R1-25-00-1_meter_38;     
      phases CN;     
      nominal_voltage 480.00;
}


object node {
      name R1-25-00-1_load_39;     
      parent R1-25-00-1_meter_39;     
      phases CN;     
      nominal_voltage 480.00;
}


object node {
      name R1-25-00-1_load_40;     
      parent R1-25-00-1_meter_40;     
      phases CN;     
      nominal_voltage 480.00;
}


object node {
      name R1-25-00-1_load_41;     
      parent R1-25-00-1_meter_41;     
      phases CN;     
      nominal_voltage 480.00;
}


object node {
      name R1-25-00-1_load_42;     
      parent R1-25-00-1_meter_42;     
      phases CN;     
      nominal_voltage 480.00;
}


object node {
      name R1-25-00-1_load_43;     
      parent R1-25-00-1_meter_43;     
      phases CN;     
      nominal_voltage 480.00;
}


object node {
      name R1-25-00-1_load_44;     
      parent R1-25-00-1_meter_44;     
      phases CN;     
      nominal_voltage 480.00;
}


object node {
      name R1-25-00-1_load_45;     
      parent R1-25-00-1_meter_45;     
      phases CN;     
      nominal_voltage 480.00;
}


object node {
      name R1-25-00-1_load_46;     
      parent R1-25-00-1_meter_46;     
      phases AN;     
      nominal_voltage 480.00;
}


object node {
      name R1-25-00-1_load_47;     
      parent R1-25-00-1_meter_47;     
      phases AN;     
      nominal_voltage 480.00;
}


object node {
      name R1-25-00-1_load_48;     
      parent R1-25-00-1_meter_48;     
      phases ABCN;     
      nominal_voltage 480.00;
}


object node {
      name R1-25-00-1_load_49;     
      parent R1-25-00-1_meter_49;     
      phases ABCN;     
      nominal_voltage 480.00;
}


object node {
      name R1-25-00-1_load_50;     
      parent R1-25-00-1_meter_50;     
      phases ABCN;     
      nominal_voltage 480.00;
}


object node {
      name R1-25-00-1_load_51;     
      parent R1-25-00-1_meter_51;     
      phases ABCN;     
      nominal_voltage 480.00;
}


object node {
      name R1-25-00-1_load_52;     
      parent R1-25-00-1_meter_52;     
      phases ABCN;     
      nominal_voltage 480.00;
}


object node {
      name R1-25-00-1_load_53;     
      parent R1-25-00-1_meter_53;     
      phases CN;     
      nominal_voltage 480.00;
}


object node {
      name R1-25-00-1_load_54;     
      parent R1-25-00-1_meter_54;     
      phases CN;     
      nominal_voltage 480.00;
}


object node {
      name R1-25-00-1_load_55;     
      parent R1-25-00-1_meter_55;     
      phases CN;     
      nominal_voltage 480.00;
}


object node {
      name R1-25-00-1_load_56;     
      parent R1-25-00-1_meter_56;     
      phases CN;     
      nominal_voltage 480.00;
}


object node {
      name R1-25-00-1_load_57;     
      parent R1-25-00-1_meter_57;     
      phases CN;     
      nominal_voltage 480.00;
}


object node {
      name R1-25-00-1_load_58;     
      parent R1-25-00-1_meter_58;     
      phases CN;     
      nominal_voltage 480.00;
}


object node {
      name R1-25-00-1_load_59;     
      parent R1-25-00-1_meter_59;     
      phases AN;     
      nominal_voltage 480.00;
}


object node {
      name R1-25-00-1_load_60;     
      parent R1-25-00-1_meter_60;     
      phases AN;     
      nominal_voltage 480.00;
}


object node {
      name R1-25-00-1_load_61;     
      parent R1-25-00-1_meter_61;     
      phases ABCN;     
      nominal_voltage 480.00;
}


object node {
      name R1-25-00-1_load_62;     
      parent R1-25-00-1_meter_62;     
      phases BN;     
      nominal_voltage 480.00;
}


object node {
      name R1-25-00-1_load_63;     
      parent R1-25-00-1_meter_63;     
      phases BN;     
      nominal_voltage 480.00;
}


object node {
      name R1-25-00-1_load_64;     
      parent R1-25-00-1_meter_64;     
      phases BN;     
      nominal_voltage 480.00;
}


object node {
      name R1-25-00-1_load_65;     
      parent R1-25-00-1_meter_65;     
      phases BN;     
      nominal_voltage 480.00;
}


object node {
      name R1-25-00-1_load_66;     
      parent R1-25-00-1_meter_66;     
      phases BN;     
      nominal_voltage 480.00;
}


object node {
      name R1-25-00-1_load_67;     
      parent R1-25-00-1_meter_67;     
      phases ACN;     
      nominal_voltage 480.00;
}


object node {
      name R1-25-00-1_load_68;     
      parent R1-25-00-1_meter_68;     
      phases AN;     
      nominal_voltage 480.00;
}


object node {
      name R1-25-00-1_load_69;     
      parent R1-25-00-1_meter_69;     
      phases ACN;     
      nominal_voltage 480.00;
}


object node {
      name R1-25-00-1_load_70;     
      parent R1-25-00-1_meter_70;     
      phases AN;     
      nominal_voltage 480.00;
}


object node {
      name R1-25-00-1_load_71;     
      parent R1-25-00-1_meter_71;     
      phases AN;     
      nominal_voltage 480.00;
}


object node {
      name R1-25-00-1_load_72;     
      parent R1-25-00-1_meter_72;     
      phases ACN;     
      nominal_voltage 480.00;
}


object node {
      name R1-25-00-1_load_73;     
      parent R1-25-00-1_meter_73;     
      phases ACN;     
      nominal_voltage 480.00;
}


object node {
      name R1-25-00-1_load_74;     
      parent R1-25-00-1_meter_74;     
      phases AN;     
      nominal_voltage 480.00;
}


object node {
      name R1-25-00-1_load_75;     
      parent R1-25-00-1_meter_75;     
      phases AN;     
      nominal_voltage 480.00;
}


object node {
      name R1-25-00-1_load_76;     
      parent R1-25-00-1_meter_76;     
      phases AN;     
...